pglib_opf_case2000_ieee.m
function mpc = pglib_opf_case2000_ieee
mpc.version = '2';
mpc.baseMVA = 100.0;

%% bus data
%	bus_i	type	Pd	Qd	Gs	Bs	area	Vm	Va	baseKV	zone	Vmax	Vmin
mpc.bus = [
    1	1	0.0000 	0.0000 	0.0000 	0.0000 	1	1.0000 	0.0000 	138	1	1.1000 	0.9000;
    2	1	0.0000 	0.0000 	0.0000 	0.0000 	1	1.0000 	0.0000 	69	1	1.1000 	0.9000;
    3	1	78.7907 	38.1240 	0.0000 	0.0000 	1	1.0000 	0.0000 	138	1	1.1000 	0.9000;
    4	1	49.8409 	3.3584 	0.0000 	0.0000 	1	1.0000 	0.0000 	69	1	1.1000 	0.9000;
    5	1	74.8265 	36.8320 	0.0000 	0.0000 	1	1.0000 	0.0000 	69	1	1.1000 	0.9000;
    6	1	65.7720 	5.3320 	0.0000 	0.0000 	1	1.0000 	0.0000 	69	1	1.1000 	0.9000;
    7	1	70.8370 	15.2361 	0.0000 	0.0000 	1	1.0000 	0.0000 	138	1	1.1000 	0.9000;
    8	1	48.8911 	12.7915 	0.0000 	125.0820 	1	1.0000 	0.0000 	69	1	1.1000 	0.9000;
    9	1	0.0000 	0.0000 	0.0000 	0.0000 	1	1.0000 	0.0000 	138	1	1.1000 	0.9000;
    10	1	0.0000 	0.0000 	0.0000 	0.0000 	1	1.0000 	0.0000 	69	1	1.1000 	0.9000;
    11	1	110.1034 	36.1746 	0.0000 	0.0000 	1	1.0000 	0.0000 	138	1	1.1000 	0.9000;
    12	1	0.0000 	0.0000 	0.0000 	0.0000 	1	1.0000 	0.0000 	138	1	1.1000 	0.9000;
    13	1	103.2711 	22.1167 	0.0000 	0.0000 	1	1.0000 	0.0000 	69	1	1.1000 	0.9000;
    14	1	0.0000 	0.0000 	0.0000 	0.0000 	1	1.0000 	0.0000 	138	1	1.1000 	0.9000;
    15	1	155.1099 	75.3761 	0.0000 	0.0000 	1	1.0000 	0.0000 	138	1	1.1000 	0.9000;
    16	1	72.7054 	14.1119 	0.0000 	0.0000 	1	1.0000 	0.0000 	69	1	1.1000 	0.9000;
    17	1	57.0440 	33.7674 	0.0000 	0.0000 	1	1.0000 	0.0000 	69	1	1.1000 	0.9000;
    18	1	0.0000 	0.0000 	0.0000 	0.0000 	1	1.0000 	0.0000 	69	1	1.1000 	0.9000;
    19	1	20.3163 	2.3021 	0.0000 	0.0000 	1	1.0000 	0.0000 	69	1	1.1000 	0.9000;
    20	1	0.0000 	0.0000 	0.0000 	0.0000 	1	1.0000 	0.0000 	138	1	1.1000 	0.9000;
    21	1	136.1779 	16.6848 	0.0000 	0.0000 	1	1.0000 	0.0000 	69	1	1.1000 	0.9000;
    22	1	0.0000 	0.0000 	0.0000 	0.0000 	1	1.0000 	0.0000 	138	1	1.1000 	0.9000;
    23	1	59.7475 	8.8166 	0.0000 	0.0000 	1	1.0000 	0.0000 	69	1	1.1000 	0.9000;
    24	1	16.5743 	3.6670 	0.0000 	0.0000 	1	1.0000 	0.0000 	69	1	1.1000 	0.9000;
    25	1	20.0129 	2.3902 	0.0000 	0.0000 	1	1.0000 	0.0000 	69	1	1.1000 	0.9000;
    26	1	0.0000 	0.0000 	0.0000 	0.0000 	1	1.0000 	0.0000 	138	1	1.1000 	0.9000;
    27	1	75.2930 	19.9778 	0.0000 	0.0000 	1	1.0000 	0.0000 	69	1	1.1000 	0.9000;
    28	1	0.0000 	0.0000 	0.0000 	0.0000 	1	1.0000 	0.0000 	138	1	1.1000 	0.9000;
    29	1	99.5416 	38.8649 	0.0000 	0.0000 	1	1.0000 	0.0000 	69	1	1.1000 	0.9000;
    30	1	74.3099 	1.6540 	0.0000 	0.0000 	1	1.0000 	0.0000 	138	1	1.1000 	0.9000;
    31	1	0.0000 	0.0000 	0.0000 	0.0000 	1	1.0000 	0.0000 	138	1	1.1000 	0.9000;
    32	1	0.0000 	0.0000 	0.0000 	0.0000 	1	1.0000 	0.0000 	69	1	1.1000 	0.9000;
    33	1	63.9372 	14.7726 	0.0000 	0.0000 	1	1.0000 	0.0000 	138	1	1.1000 	0.9000;
    34	1	68.4653 	18.5388 	0.0000 	0.0000 	1	1.0000 	0.0000 	138	1	1.1000 	0.9000;
    35	1	76.6697 	14.2784 	0.0000 	0.0000 	1	1.0000 	0.0000 	69	1	1.1000 	0.9000;
    36	1	57.5734 	6.4810 	0.0000 	0.0000 	1	1.0000 	0.0000 	69	1	1.1000 	0.9000;
    37	1	89.1090 	10.0709 	0.0000 	0.0000 	1	1.0000 	0.0000 	69	1	1.1000 	0.9000;
    38	1	25.6231 	6.4104 	0.0000 	0.0000 	1	1.0000 	0.0000 	69	1	1.1000 	0.9000;
    39	1	0.0000 	0.0000 	0.0000 	0.0000 	1	1.0000 	0.0000 	138	1	1.1000 	0.9000;
    40	1	70.9894 	39.1664 	0.0000 	0.0000 	1	1.0000 	0.0000 	69	1	1.1000 	0.9000;
    41	1	41.6828 	13.9438 	0.0000 	0.0000 	1	1.0000 	0.0000 	69	1	1.1000 	0.9000;
    42	1	0.0000 	0.0000 	0.0000 	0.0000 	1	1.0000 	0.0000 	138	1	1.1000 	0.9000;
    43	1	0.0000 	0.0000 	0.0000 	0.0000 	1	1.0000 	0.0000 	69	1	1.1000 	0.9000;
    44	1	84.6658 	47.9701 	0.0000 	0.0000 	1	1.0000 	0.0000 	138	1	1.1000 	0.9000;
    45	1	25.5725 	4.7828 	0.0000 	0.0000 	1	1.0000 	0.0000 	69	1	1.1000 	0.9000;
    46	1	26.7627 	5.0335 	0.0000 	0.0000 	1	1.0000 	0.0000 	69	1	1.1000 	0.9000;
    47	1	0.0000 	0.0000 	0.0000 	0.0000 	1	1.0000 	0.0000 	345	1	1.1000 	0.9000;
    48	1	0.0000 	0.0000 	0.0000 	0.0000 	1	1.0000 	0.0000 	138	1	1.1000 	0.9000;
    49	1	0.0000 	0.0000 	0.0000 	0.0000 	1	1.0000 	0.0000 	69	1	1.1000 	0.9000;
    50	1	53.4637 	22.7595 	0.0000 	0.0000 	1	1.0000 	0.0000 	345	1	1.1000 	0.9000;
    51	1	33.5839 	17.3589 	0.0000 	0.0000 	1	1.0000 	0.0000 	69	1	1.1000 	0.9000;
    52	1	0.0000 	0.0000 	0.0000 	0.0000 	1	1.0000 	0.0000 	345	1	1.1000 	0.9000;
    53	1	0.0000 	0.0000 	0.0000 	0.0000 	1	1.0000 	0.0000 	138	1	1.1000 	0.9000;
    54	1	81.7899 	26.3809 	0.0000 	0.0000 	1	1.0000 	0.0000 	345	1	1.1000 	0.9000;
    55	1	0.0000 	0.0000 	0.0000 	0.0000 	1	1.0000 	0.0000 	138	1	1.1000 	0.9000;
    56	1	0.0000 	0.0000 	0.0000 	0.0000 	1	1.0000 	0.0000 	69	1	1.1000 	0.9000;
    57	1	49.2854 	3.6252 	0.0000 	0.0000 	1	1.0000 	0.0000 	138	1	1.1000 	0.9000;
    58	1	36.4080 	14.6801 	0.0000 	0.0000 	1	1.0000 	0.0000 	69	1	1.1000 	0.9000;
    59	1	27.2603 	9.2469 	0.0000 	0.0000 	1	1.0000 	0.0000 	69	1	1.1000 	0.9000;
    60	1	20.1057 	0.6447 	0.0000 	0.0000 	1	1.0000 	0.0000 	69	1	1.1000 	0.9000;
    61	1	10.2443 	3.1164 	0.0000 	0.0000 	1	1.0000 	0.0000 	69	1	1.1000 	0.9000;
    62	1	9.6272 	6.1399 	0.0000 	0.0000 	1	1.0000 	0.0000 	69	1	1.1000 	0.9000;
    63	1	0.0000 	0.0000 	0.0000 	0.0000 	1	1.0000 	0.0000 	138	1	1.1000 	0.9000;
    64	1	0.0000 	0.0000 	0.0000 	0.0000 	1	1.0000 	0.0000 	69	1	1.1000 	0.9000;
    65	1	21.0566 	10.9749 	0.0000 	0.0000 	1	1.0000 	0.0000 	138	1	1.1000 	0.9000;
    66	1	9.8049 	3.7491 	0.0000 	0.0000 	1	1.0000 	0.0000 	69	1	1.1000 	0.9000;
    67	1	0.0000 	0.0000 	0.0000 	0.0000 	1	1.0000 	0.0000 	138	1	1.1000 	0.9000;
    68	1	0.0000 	0.0000 	0.0000 	0.0000 	1	1.0000 	0.0000 	69	1	1.1000 	0.9000;
    69	1	11.9913 	6.3521 	0.0000 	0.0000 	1	1.0000 	0.0000 	138	1	1.1000 	0.9000;
    70	1	9.1450 	0.7805 	0.0000 	0.0000 	1	1.0000 	0.0000 	69	1	1.1000 	0.9000;
    71	1	0.0000 	0.0000 	0.0000 	0.0000 	1	1.0000 	0.0000 	138	1	1.1000 	0.9000;
    72	1	15.0372 	5.0162 	0.0000 	0.0000 	1	1.0000 	0.0000 	69	1	1.1000 	0.9000;
    73	1	0.0000 	0.0000 	0.0000 	0.0000 	1	1.0000 	0.0000 	138	1	1.1000 	0.9000;
    74	1	16.0719 	1.3234 	0.0000 	8.4969 	1	1.0000 	0.0000 	69	1	1.1000 	0.9000;
    75	1	18.6671 	6.0978 	0.0000 	0.0000 	1	1.0000 	0.0000 	69	1	1.1000 	0.9000;
    76	1	0.0000 	0.0000 	0.0000 	0.0000 	1	1.0000 	0.0000 	138	1	1.1000 	0.9000;
    77	1	0.0000 	0.0000 	0.0000 	0.0000 	1	1.0000 	0.0000 	69	1	1.1000 	0.9000;
    78	1	33.0332 	5.8455 	0.0000 	0.0000 	1	1.0000 	0.0000 	138	1	1.1000 	0.9000;
    79	1	0.0000 	0.0000 	0.0000 	0.0000 	1	1.0000 	0.0000 	138	1	1.1000 	0.9000;
    80	1	0.0000 	0.0000 	0.0000 	0.0000 	1	1.0000 	0.0000 	69	1	1.1000 	0.9000;
    81	1	11.0688 	2.0924 	0.0000 	0.0000 	1	1.0000 	0.0000 	138	1	1.1000 	0.9000;
    82	1	9.7404 	0.6424 	0.0000 	0.0000 	1	1.0000 	0.0000 	69	1	1.1000 	0.9000;
    83	1	0.0000 	0.0000 	0.0000 	0.0000 	1	1.0000 	0.0000 	138	1	1.1000 	0.9000;
    84	1	20.1797 	6.4866 	0.0000 	0.0000 	1	1.0000 	0.0000 	138	1	1.1000 	0.9000;
    85	1	0.0000 	0.0000 	0.0000 	0.0000 	1	1.0000 	0.0000 	138	1	1.1000 	0.9000;
    86	1	0.0000 	0.0000 	0.0000 	0.0000 	1	1.0000 	0.0000 	138	1	1.1000 	0.9000;
    87	1	0.0000 	0.0000 	0.0000 	0.0000 	1	1.0000 	0.0000 	69	1	1.1000 	0.9000;
    88	1	65.4834 	15.9201 	0.0000 	0.0000 	1	1.0000 	0.0000 	138	1	1.1000 	0.9000;
    89	1	0.0000 	0.0000 	0.0000 	0.0000 	1	1.0000 	0.0000 	138	1	1.1000 	0.9000;
    90	1	0.0000 	0.0000 	0.0000 	0.0000 	1	1.0000 	0.0000 	69	1	1.1000 	0.9000;
    91	1	79.9238 	12.8332 	0.0000 	0.0000 	1	1.0000 	0.0000 	138	1	1.1000 	0.9000;
    92	1	36.3174 	17.5574 	0.0000 	0.0000 	1	1.0000 	0.0000 	69	1	1.1000 	0.9000;
    93	1	23.1651 	5.4132 	0.0000 	13.0031 	1	1.0000 	0.0000 	69	1	1.1000 	0.9000;
    94	1	24.3595 	4.0918 	0.0000 	0.0000 	1	1.0000 	0.0000 	69	1	1.1000 	0.9000;
    95	1	75.0538 	19.9047 	0.0000 	0.0011 	1	1.0000 	0.0000 	69	1	1.1000 	0.9000;
    96	1	0.0000 	0.0000 	0.0000 	0.0000 	1	1.0000 	0.0000 	345	1	1.1000 	0.9000;
    97	1	0.0000 	0.0000 	0.0000 	0.0000 	1	1.0000 	0.0000 	138	1	1.1000 	0.9000;
    98	1	0.0000 	0.0000 	0.0000 	0.0000 	1	1.0000 	0.0000 	69	1	1.1000 	0.9000;
    99	1	90.6495 	33.6429 	0.0000 	0.0000 	1	1.0000 	0.0000 	138	1	1.1000 	0.9000;
    100	1	0.0000 	0.0000 	0.0000 	0.0000 	1	1.0000 	0.0000 	138	1	1.1000 	0.9000;
    101	1	0.0000 	0.0000 	0.0000 	0.0000 	1	1.0000 	0.0000 	69	1	1.1000 	0.9000;
    102	1	100.2665 	14.6213 	0.0000 	0.0000 	1	1.0000 	0.0000 	138	1	1.1000 	0.9000;
    103	1	53.5802 	2.5065 	0.0000 	0.0000 	1	1.0000 	0.0000 	69	1	1.1000 	0.9000;
    104	1	74.3790 	26.5211 	0.0000 	0.0000 	1	1.0000 	0.0000 	69	1	1.1000 	0.9000;
    105	1	0.0000 	0.0000 	0.0000 	0.0007 	1	1.0000 	0.0000 	345	1	1.1000 	0.9000;
    106	1	0.0000 	0.0000 	0.0000 	0.0000 	1	1.0000 	0.0000 	138	1	1.1000 	0.9000;
    107	1	0.0000 	0.0000 	0.0000 	0.0000 	1	1.0000 	0.0000 	69	1	1.1000 	0.9000;
    108	1	98.7172 	33.6222 	0.0000 	0.0000 	1	1.0000 	0.0000 	345	1	1.1000 	0.9000;
    109	1	53.1253 	14.0195 	0.0000 	0.0000 	1	1.0000 	0.0000 	69	1	1.1000 	0.9000;
    110	1	0.0000 	0.0000 	0.0000 	0.0000 	1	1.0000 	0.0000 	138	1	1.1000 	0.9000;
    111	1	0.0000 	0.0000 	0.0000 	0.0000 	1	1.0000 	0.0000 	69	1	1.1000 	0.9000;
    112	1	87.9058 	20.8016 	0.0000 	0.0000 	1	1.0000 	0.0000 	138	1	1.1000 	0.9000;
    113	1	55.3529 	6.4494 	0.0000 	0.0000 	1	1.0000 	0.0000 	69	1	1.1000 	0.9000;
    114	1	8.3174 	2.3228 	0.0000 	-19.5770 	1	1.0000 	0.0000 	69	1	1.1000 	0.9000;
    115	1	47.8612 	20.4975 	0.0000 	0.0000 	1	1.0000 	0.0000 	69	1	1.1000 	0.9000;
    116	1	17.5550 	3.8567 	0.0000 	0.0000 	1	1.0000 	0.0000 	69	1	1.1000 	0.9000;
    117	1	42.0606 	1.5313 	0.0000 	0.0000 	1	1.0000 	0.0000 	69	1	1.1000 	0.9000;
    118	1	17.6644 	4.1206 	0.0000 	0.0000 	1	1.0000 	0.0000 	69	1	1.1000 	0.9000;
    119	1	53.3614 	14.7194 	0.0000 	0.0000 	1	1.0000 	0.0000 	69	1	1.1000 	0.9000;
    120	1	78.9115 	53.8073 	0.0000 	0.0000 	1	1.0000 	0.0000 	69	1	1.1000 	0.9000;
    121	1	0.0000 	0.0000 	0.0000 	0.0000 	1	1.0000 	0.0000 	138	1	1.1000 	0.9000;
    122	1	0.0000 	0.0000 	0.0000 	0.0000 	1	1.0000 	0.0000 	69	1	1.1000 	0.9000;
    123	1	96.7343 	29.9903 	0.0000 	0.0000 	1	1.0000 	0.0000 	138	1	1.1000 	0.9000;
    124	1	0.0000 	0.0000 	0.0000 	0.0000 	1	1.0000 	0.0000 	138	1	1.1000 	0.9000;
    125	1	0.0000 	0.0000 	0.0000 	0.0000 	1	1.0000 	0.0000 	69	1	1.1000 	0.9000;
    126	1	62.5459 	23.6078 	0.0000 	0.0000 	1	1.0000 	0.0000 	138	1	1.1000 	0.9000;
    127	1	32.1265 	8.0642 	0.0000 	0.0000 	1	1.0000 	0.0000 	69	1	1.1000 	0.9000;
    128	1	38.7802 	9.3330 	0.0000 	0.0003 	1	1.0000 	0.0000 	69	1	1.1000 	0.9000;
    129	1	0.0000 	0.0000 	0.0000 	0.0000 	1	1.0000 	0.0000 	69	1	1.1000 	0.9000;
    130	1	91.2940 	15.3462 	0.0000 	0.0000 	1	1.0000 	0.0000 	69	1	1.1000 	0.9000;
    131	1	51.4276 	27.3615 	0.0000 	168.5700 	1	1.0000 	0.0000 	69	1	1.1000 	0.9000;
    132	1	0.0000 	0.0000 	0.0000 	0.0000 	1	1.0000 	0.0000 	138	1	1.1000 	0.9000;
    133	1	88.7141 	16.2929 	0.0000 	0.0000 	1	1.0000 	0.0000 	69	1	1.1000 	0.9000;
    134	1	0.0000 	0.0000 	0.0000 	0.0000 	1	1.0000 	0.0000 	138	1	1.1000 	0.9000;
    135	1	0.0000 	0.0000 	0.0000 	0.0000 	1	1.0000 	0.0000 	138	1	1.1000 	0.9000;
    136	1	0.0000 	0.0000 	0.0000 	0.0000 	1	1.0000 	0.0000 	69	1	1.1000 	0.9000;
    137	1	168.9538 	21.3821 	0.0000 	0.0000 	1	1.0000 	0.0000 	138	1	1.1000 	0.9000;
    138	1	53.7687 	6.3117 	0.0000 	0.0000 	1	1.0000 	0.0000 	69	1	1.1000 	0.9000;
    139	1	0.0000 	0.0000 	0.0000 	0.0000 	1	1.0000 	0.0000 	138	1	1.1000 	0.9000;
    140	1	122.3608 	73.2510 	0.0000 	0.0000 	1	1.0000 	0.0000 	69	1	1.1000 	0.9000;
    141	1	0.0000 	0.0000 	0.0000 	0.0000 	1	1.0000 	0.0000 	138	1	1.1000 	0.9000;
    142	1	0.0000 	0.0000 	0.0000 	0.0000 	1	1.0000 	0.0000 	138	1	1.1000 	0.9000;
    143	1	0.0000 	0.0000 	0.0000 	0.0000 	1	1.0000 	0.0000 	69	1	1.1000 	0.9000;
    144	1	101.1028 	19.2929 	0.0000 	0.0000 	1	1.0000 	0.0000 	138	1	1.1000 	0.9000;
    145	1	57.2629 	6.6370 	0.0000 	0.0000 	1	1.0000 	0.0000 	69	1	1.1000 	0.9000;
    146	1	49.9663 	10.9590 	0.0000 	0.0000 	1	1.0000 	0.0000 	69	1	1.1000 	0.9000;
    147	1	0.0000 	0.0000 	0.0000 	0.0000 	1	1.0000 	0.0000 	138	1	1.1000 	0.9000;
    148	1	0.0000 	0.0000 	0.0000 	0.0000 	1	1.0000 	0.0000 	69	1	1.1000 	0.9000;
    149	1	86.3935 	20.1939 	0.0000 	0.0000 	1	1.0000 	0.0000 	138	1	1.1000 	0.9000;
    150	1	62.9119 	7.8454 	0.0000 	0.0000 	1	1.0000 	0.0000 	69	1	1.1000 	0.9000;
    151	1	0.0000 	0.0000 	0.0000 	0.0000 	1	1.0000 	0.0000 	138	1	1.1000 	0.9000;
    152	1	0.0000 	0.0000 	0.0000 	0.0000 	1	1.0000 	0.0000 	69	1	1.1000 	0.9000;
    153	1	68.0804 	7.9237 	0.0000 	0.0000 	1	1.0000 	0.0000 	138	1	1.1000 	0.9000;
    154	1	95.3664 	20.1280 	0.0000 	0.0000 	1	1.0000 	0.0000 	69	1	1.1000 	0.9000;
    155	1	60.1730 	2.6702 	0.0000 	0.0000 	1	1.0000 	0.0000 	69	1	1.1000 	0.9000;
    156	1	60.1188 	26.7359 	0.0000 	0.0000 	1	1.0000 	0.0000 	69	1	1.1000 	0.9000;
    157	1	57.0303 	14.9235 	0.0000 	0.0000 	1	1.0000 	0.0000 	138	1	1.1000 	0.9000;
    158	1	89.8182 	21.2898 	0.0000 	0.0000 	1	1.0000 	0.0000 	138	1	1.1000 	0.9000;
    159	1	0.0000 	0.0000 	0.0000 	371.1405 	1	1.0000 	0.0000 	345	1	1.1000 	0.9000;
    160	1	0.0000 	0.0000 	0.0000 	0.0000 	1	1.0000 	0.0000 	138	1	1.1000 	0.9000;
    161	1	0.0000 	0.0000 	0.0000 	0.0000 	1	1.0000 	0.0000 	69	1	1.1000 	0.9000;
    162	1	88.9167 	12.8810 	0.0000 	0.0000 	1	1.0000 	0.0000 	138	1	1.1000 	0.9000;
    163	1	53.7282 	13.0509 	0.0000 	0.0000 	1	1.0000 	0.0000 	69	1	1.1000 	0.9000;
    164	1	34.9609 	9.2920 	0.0000 	0.0000 	1	1.0000 	0.0000 	69	1	1.1000 	0.9000;
    165	1	0.0000 	0.0000 	0.0000 	0.0000 	1	1.0000 	0.0000 	138	1	1.1000 	0.9000;
    166	1	0.0000 	0.0000 	0.0000 	0.0000 	1	1.0000 	0.0000 	69	1	1.1000 	0.9000;
    167	1	170.4322 	103.6860 	0.0000 	0.0000 	1	1.0000 	0.0000 	138	1	1.1000 	0.9000;
    168	1	31.4419 	5.9823 	0.0000 	0.0000 	1	1.0000 	0.0000 	69	1	1.1000 	0.9000;
    169	1	60.0725 	15.9849 	0.0000 	27.4224 	1	1.0000 	0.0000 	69	1	1.1000 	0.9000;
    170	1	0.0000 	0.0000 	0.0000 	0.0000 	1	1.0000 	0.0000 	138	1	1.1000 	0.9000;
    171	1	0.0000 	0.0000 	0.0000 	0.0000 	1	1.0000 	0.0000 	69	1	1.1000 	0.9000;
    172	1	81.2391 	19.1846 	0.0000 	0.0000 	1	1.0000 	0.0000 	138	1	1.1000 	0.9000;
    173	1	62.2656 	32.2366 	0.0000 	61.4829 	1	1.0000 	0.0000 	69	1	1.1000 	0.9000;
    174	1	0.0000 	0.0000 	0.0000 	0.0000 	1	1.0000 	0.0000 	138	1	1.1000 	0.9000;
    175	1	0.0000 	0.0000 	0.0000 	0.0000 	1	1.0000 	0.0000 	69	1	1.1000 	0.9000;
    176	1	84.3216 	9.8924 	0.0000 	0.0000 	1	1.0000 	0.0000 	138	1	1.1000 	0.9000;
    177	1	40.8008 	11.2386 	0.0000 	60.0972 	1	1.0000 	0.0000 	69	1	1.1000 	0.9000;
    178	1	26.8395 	5.9192 	0.0000 	41.5651 	1	1.0000 	0.0000 	69	1	1.1000 	0.9000;
    179	1	53.8745 	6.3174 	0.0000 	0.0000 	1	1.0000 	0.0000 	69	1	1.1000 	0.9000;
    180	1	37.3249 	5.3885 	0.0000 	0.0000 	1	1.0000 	0.0000 	69	1	1.1000 	0.9000;
    181	1	0.0000 	0.0000 	0.0000 	0.0000 	1	1.0000 	0.0000 	138	1	1.1000 	0.9000;
    182	1	0.0000 	0.0000 	0.0000 	0.0000 	1	1.0000 	0.0000 	69	1	1.1000 	0.9000;
    183	1	93.1553 	21.8343 	0.0000 	0.0000 	1	1.0000 	0.0000 	138	1	1.1000 	0.9000;
    184	1	47.9467 	3.3750 	0.0000 	0.0000 	1	1.0000 	0.0000 	69	1	1.1000 	0.9000;
    185	1	34.4089 	5.9239 	0.0000 	0.0000 	1	1.0000 	0.0000 	69	1	1.1000 	0.9000;
    186	1	44.2642 	10.4585 	0.0000 	-63.3799 	1	1.0000 	0.0000 	69	1	1.1000 	0.9000;
    187	1	41.8161 	12.7048 	0.0000 	0.0000 	1	1.0000 	0.0000 	69	1	1.1000 	0.9000;
    188	1	0.0000 	0.0000 	0.0000 	0.0000 	1	1.0000 	0.0000 	138	1	1.1000 	0.9000;
    189	1	0.0000 	0.0000 	0.0000 	0.0000 	1	1.0000 	0.0000 	69	1	1.1000 	0.9000;
    190	1	67.8785 	15.2287 	0.0000 	0.0000 	1	1.0000 	0.0000 	138	1	1.1000 	0.9000;
    191	1	0.0000 	0.0000 	0.0000 	0.0000 	1	1.0000 	0.0000 	138	1	1.1000 	0.9000;
    192	1	63.2544 	27.3804 	0.0000 	0.0000 	1	1.0000 	0.0000 	69	1	1.1000 	0.9000;
    193	1	0.0000 	0.0000 	0.0000 	0.0000 	1	1.0000 	0.0000 	138	1	1.1000 	0.9000;
    194	1	0.0000 	0.0000 	0.0000 	0.0000 	1	1.0000 	0.0000 	138	1	1.1000 	0.9000;
    195	1	0.0000 	0.0000 	0.0000 	0.0000 	1	1.0000 	0.0000 	69	1	1.1000 	0.9000;
    196	1	58.7007 	9.7810 	0.0000 	0.0000 	1	1.0000 	0.0000 	138	1	1.1000 	0.9000;
    197	1	48.8778 	10.8923 	0.0000 	0.0000 	1	1.0000 	0.0000 	69	1	1.1000 	0.9000;
    198	1	0.0000 	0.0000 	0.0000 	0.0000 	1	1.0000 	0.0000 	69	1	1.1000 	0.9000;
    199	1	35.0718 	4.7227 	0.0000 	0.0002 	1	1.0000 	0.0000 	69	1	1.1000 	0.9000;
    200	1	43.8969 	17.3632 	0.0000 	0.0000 	1	1.0000 	0.0000 	69	1	1.1000 	0.9000;
...
];

%% generator data
%	bus	Pg	Qg	Qmax	Qmin	Vg	mBase	status	Pmax	Pmin
mpc.gen = [
    511	199.3925 	57.0965 	12121.4030 	-1401.3120 	1	286.92 	1	58817.9850 	0.0000;
    512	211.8150 	57.0965 	12121.4030 	-1401.3120 	1	286.92 	1	58817.9850 	0.0000;
    513	202.3985 	57.0965 	12121.4030 	-1401.3120 	1	286.92 	1	58817.9850 	0.0000;
    514	203.4165 	57.0965 	12121.4030 	-1401.3120 	1	286.92 	1	58817.9850 	0.0000;
    515	215.0240 	57.0965 	12121.4030 	-1401.3120 	1	286.92 	1	58817.9850 	0.0000;
    516	176.2020 	57.0965 	12121.4030 	-1401.3120 	1	286.92 	1	58817.9850 	0.0000;
    518	17.5320 	5.2730 	1679.2560 	-129.4480 	1	26.50 	1	5432.5000 	0.0000;
    522	605.9270 	117.0600 	37505.0025 	-2953.5000 	1	818.60 	1	167813.0000 	0.0000;
    523	455.4990 	117.0600 	37505.0025 	-2953.5000 	1	818.60 	1	167813.0000 	0.0000;
    530	147.4510 	48.7150 	10342.0490 	-1195.6120 	1	244.80 	1	50184.0000 	0.0000;
    531	174.0605 	48.7150 	15513.0735 	-1195.6120 	1	244.80 	1	0.0000 	0.0000;
    532	168.6685 	48.7150 	10342.0490 	-1195.6120 	1	244.80 	1	0.0000 	0.0000;
    533	163.7090 	48.7150 	10342.0490 	-1195.6120 	1	244.80 	1	0.0000 	0.0000;
    536	276.2800 	69.1440 	15548.5560 	-2157.9360 	1	402.00 	1	0.0000 	0.0000;
    537	286.5690 	69.1440 	15548.5560 	-2157.9360 	1	402.00 	1	0.0000 	0.0000;
    539	9.5495 	2.5240 	567.3880 	-78.6720 	1	3.67 	1	0.0000 	0.0000;
    543	111.8905 	34.5730 	7339.6900 	-848.4960 	1	173.73 	1	35615.2650 	0.0000;
    544	127.1945 	34.5730 	7339.6900 	-848.4960 	1	173.73 	1	35615.2650 	0.0000;
    546	116.4245 	34.5730 	7339.6900 	-848.4960 	1	173.73 	1	35615.2650 	0.0000;
    547	111.5030 	34.5730 	7339.6900 	-848.4960 	1	173.73 	1	35615.2650 	0.0000;
    551	624.0895 	154.4400 	32987.5200 	-3896.6400 	1	1080.00 	1	221400.0000 	0.0000;
    552	626.3610 	154.4400 	49481.2800 	-3896.6400 	1	1080.00 	1	221400.0000 	0.0000;
    554	226.6900 	68.0600 	14448.6400 	-1670.2400 	1	68.40 	1	70110.0000 	0.0000;
    558	75.4280 	27.2230 	5779.3730 	-668.1400 	1	136.80 	1	28044.0000 	0.0000;
    561	82.7240 	27.2230 	5779.3730 	-668.1400 	1	136.80 	1	28044.0000 	0.0000;
    562	78.8815 	27.2230 	5779.3730 	-668.1400 	1	136.80 	1	28044.0000 	0.0000;
    563	86.6705 	27.2230 	5779.3730 	-668.1400 	1	136.80 	1	28044.0000 	0.0000;
    567	461.7685 	141.3900 	30016.5350 	-3470.0600 	1	710.50 	1	0.0000 	0.0000;
    568	419.9705 	141.3900 	30016.5350 	-3470.0600 	1	710.50 	1	0.0000 	0.0000;
    569	523.3460 	141.3900 	30016.5350 	-3470.0600 	1	710.50 	1	0.0000 	0.0000;
    570	393.3250 	141.3900 	30016.5350 	-3470.0600 	1	710.50 	1	0.0000 	0.0000;
    575	85.8000 	21.3280 	4796.0720 	-665.6320 	1	124.00 	1	0.0000 	0.0000;
    576	87.0925 	21.3280 	4796.0720 	-665.6320 	1	124.00 	1	0.0000 	0.0000;
    577	68.3500 	21.3280 	4796.0720 	-665.6320 	1	124.00 	1	0.0000 	0.0000;
    578	70.8530 	21.3280 	4796.0720 	-665.6320 	1	124.00 	1	0.0000 	0.0000;
    581	13.2830 	3.6265 	815.4750 	-113.1680 	1	21.08 	1	0.0000 	0.0000;
    582	40.0245 	10.8795 	2446.4250 	-339.5040 	1	21.08 	1	0.0000 	0.0000;
    587	119.0220 	36.0190 	7646.7070 	-884.0040 	1	181.00 	1	37105.0000 	0.0000;
    588	123.0775 	36.0190 	11470.0605 	-884.0040 	1	181.00 	1	37105.0000 	0.0000;
    590	19.2650 	6.2480 	1326.5060 	-230.0760 	1	15.70 	1	8368.1000 	0.0000;
    594	233.1585 	64.4265 	13677.4870 	-1581.1840 	1	323.75 	1	0.0000 	0.0000;
    596	235.4780 	64.4265 	13677.4870 	-1581.1840 	1	323.75 	1	0.0000 	0.0000;
    597	185.2770 	64.4265 	13677.4870 	-1581.1840 	1	323.75 	1	66368.7500 	0.0000;
    1212	91.7425 	28.3570 	6020.1560 	-695.9920 	1	142.50 	1	29212.5000 	0.0000;
    1214	86.6565 	28.3570 	6020.1560 	-695.9920 	1	142.50 	1	0.0000 	0.0000;
    1216	109.2215 	34.6260 	7350.9780 	-849.8160 	1	87.00 	1	0.0000 	0.0000;
    1219	316.0745 	86.8950 	19540.0260 	-2711.8080 	1	84.20 	1	0.0000 	0.0000;
    1227	127.5005 	39.5770 	12603.1350 	-971.3440 	1	198.88 	1	0.0000 	0.0000;
    1228	130.3675 	39.5770 	12603.1350 	-971.3440 	1	198.88 	1	0.0000 	0.0000;
    1229	135.5645 	39.5770 	12603.1350 	-971.3440 	1	198.88 	1	0.0000 	0.0000;
    1237	129.6835 	40.9340 	13035.2745 	-1004.6520 	1	205.70 	1	0.0000 	0.0000;
    1243	145.9405 	39.6810 	8424.0850 	-973.8520 	1	199.40 	1	0.0000 	0.0000;
    1244	123.2850 	39.6810 	8424.0850 	-973.8520 	1	199.40 	1	0.0000 	0.0000;
    1251	99.6825 	35.9000 	7621.3920 	-881.0560 	1	180.40 	1	36982.0000 	0.0000;
    1252	104.4980 	35.9000 	7621.3920 	-881.0560 	1	180.40 	1	0.0000 	0.0000;
    1256	210.1575 	66.8110 	14183.7040 	-1639.7040 	1	335.73 	1	0.0000 	0.0000;
    1258	195.9485 	66.8110 	14183.7040 	-1639.7040 	1	335.73 	1	0.0000 	0.0000;
    1259	203.0900 	66.8110 	14183.7040 	-1639.7040 	1	335.73 	1	0.0000 	0.0000;
    1261	208.2510 	66.8110 	14183.7040 	-1639.7040 	1	335.73 	1	0.0000 	0.0000;
    1271	132.2430 	36.2180 	7688.9540 	-888.8880 	1	182.00 	1	0.0000 	0.0000;
    1272	130.3275 	36.2180 	7688.9540 	-888.8880 	1	182.00 	1	0.0000 	0.0000;
    1273	111.3065 	36.2180 	7688.9540 	-888.8880 	1	182.00 	1	37310.0000 	0.0000;
    1274	124.9885 	36.2180 	7688.9540 	-888.8880 	1	182.00 	1	0.0000 	0.0000;
    1281	144.9970 	49.8690 	10587.0650 	-1223.9480 	1	250.60 	1	51373.0000 	0.0000;
    1282	170.8875 	49.8690 	10587.0650 	-1223.9480 	1	250.60 	1	0.0000 	0.0000;
    1284	186.5070 	49.8690 	10587.0650 	-1223.9480 	1	250.60 	1	0.0000 	0.0000;
    1285	155.4990 	49.8690 	10587.0650 	-1223.9480 	1	250.60 	1	0.0000 	0.0000;
    1291	142.3970 	42.7320 	9071.8170 	-1048.7400 	1	214.73 	1	0.0000 	0.0000;
    1295	224.2795 	64.4265 	13677.4870 	-1581.1840 	1	323.75 	1	0.0000 	0.0000;
    1296	241.3700 	64.4265 	13677.4870 	-1581.1840 	1	323.75 	1	0.0000 	0.0000;
    1297	222.0950 	64.4265 	13677.4870 	-1581.1840 	1	323.75 	1	0.0000 	0.0000;
    1298	230.6285 	64.4265 	13677.4870 	-1581.1840 	1	323.75 	1	0.0000 	0.0000;
    1300	185.8235 	55.6400 	11812.2280 	-1365.5840 	1	69.90 	1	57318.0000 	0.0000;
    1303	296.1355 	91.3150 	29078.7180 	-2241.0960 	1	229.43 	1	0.0000 	0.0000;
    1309	111.2370 	34.9840 	7427.0060 	-858.6160 	1	175.80 	1	0.0000 	0.0000;
    1310	125.8785 	34.9840 	7427.0060 	-858.6160 	1	175.80 	1	0.0000 	0.0000;
    1313	16.0865 	4.1390 	930.7620 	-129.1840 	1	1.20 	1	0.0000 	0.0000;
    1318	122.3990 	39.8000 	8449.4000 	-976.8000 	1	200.00 	1	0.0000 	0.0000;
    1319	140.1250 	39.8000 	8449.4000 	-976.8000 	1	200.00 	1	0.0000 	0.0000;
    1320	131.9230 	39.8000 	8449.4000 	-976.8000 	1	200.00 	1	0.0000 	0.0000;
    1325	564.0280 	160.7340 	36144.5910 	-5016.3960 	1	934.50 	1	0.0000 	0.0000;
    1326	658.5845 	160.7340 	36144.5910 	-5016.3960 	1	934.50 	1	0.0000 	0.0000;
    1328	139.0320 	39.0100 	8772.1040 	-1217.3920 	1	56.70 	1	0.0000 	0.0000;
    1330	160.4415 	51.3420 	10899.7260 	-1260.0720 	1	86.00 	1	0.0000 	0.0000;
    1332	21.7845 	0.0000 	0.0000 	0.0000 	1	2.70 	1	8314.8000 	0.0000;
    1336	88.4980 	27.6705 	5874.4080 	-679.1400 	1	139.05 	1	0.0000 	0.0000;
    1337	101.1105 	27.6705 	5874.4080 	-679.1400 	1	139.05 	1	0.0000 	0.0000;
    1343	31.9490 	9.3130 	1977.1430 	-228.5800 	1	46.80 	1	9594.0000 	0.0000;
    1350	9.1470 	0.0000 	0.0000 	0.0000 	1	5.10 	1	4024.1500 	0.0000;
    1360	287.5780 	81.2085 	17240.2620 	-1993.0680 	1	408.08 	1	0.0000 	0.0000;
    1362	275.2035 	81.2085 	17240.2620 	-1993.0680 	1	408.08 	1	0.0000 	0.0000;
    1364	279.5820 	81.2085 	17240.2620 	-1993.0680 	1	408.08 	1	0.0000 	0.0000;
    1365	245.1730 	81.2085 	17240.2620 	-1993.0680 	1	408.08 	1	0.0000 	0.0000;
    1377	222.0385 	75.0395 	15930.6050 	-1841.6640 	1	377.08 	1	77302.0150 	0.0000;
    1378	242.1685 	75.0395 	15930.6050 	-1841.6640 	1	377.08 	1	0.0000 	0.0000;
    1379	266.0535 	75.0395 	15930.6050 	-1841.6640 	1	377.08 	1	0.0000 	0.0000;
    1380	237.2320 	75.0395 	15930.6050 	-1841.6640 	1	377.08 	1	0.0000 	0.0000;
    1382	217.2870 	75.0395 	15930.6050 	-1841.6640 	1	377.08 	1	0.0000 	0.0000;
    1390	182.7470 	48.7390 	10347.1120 	-1196.1840 	1	244.92 	1	0.0000 	0.0000;
    1391	180.7060 	48.7390 	10347.1120 	-1196.1840 	1	244.92 	1	0.0000 	0.0000;
    1392	152.2195 	48.7390 	10347.1120 	-1196.1840 	1	244.92 	1	0.0000 	0.0000;
    1393	147.2585 	48.7390 	10347.1120 	-1196.1840 	1	244.92 	1	0.0000 	0.0000;
    1394	154.9430 	48.7390 	10347.1120 	-1196.1840 	1	244.92 	1	50208.6000 	0.0000;
    1398	115.1155 	38.9375 	8266.3020 	-955.6360 	1	195.67 	1	40111.7350 	0.0000;
    1400	116.3320 	38.9375 	8266.3020 	-955.6360 	1	195.67 	1	0.0000 	0.0000;
    1404	583.8815 	148.4875 	33390.7340 	-4634.2120 	1	863.30 	1	0.0000 	0.0000;
    1405	549.8575 	148.4875 	33390.7340 	-4634.2120 	1	863.30 	1	0.0000 	0.0000;
    1407	31.7060 	9.5805 	3231.5220 	-298.9800 	1	55.70 	1	0.0000 	0.0000;
    1410	34.9790 	12.3380 	2619.3140 	-302.8080 	1	62.00 	1	12710.0000 	0.0000;
    1414	61.5115 	17.1540 	3641.7080 	-420.9920 	1	86.20 	1	0.0000 	0.0000;
    1417	91.8925 	28.0620 	6310.3240 	-875.7760 	1	163.15 	1	0.0000 	0.0000;
    1418	97.9985 	28.0620 	6310.3240 	-875.7760 	1	163.15 	1	0.0000 	0.0000;
    1423	331.5270 	110.6840 	23497.7980 	-2716.4720 	1	556.20 	1	0.0000 	0.0000;
    1426	90.9045 	24.9350 	5293.5740 	-611.9520 	1	62.65 	1	25686.5000 	0.0000;
    1429	72.7010 	22.1680 	4706.2660 	-544.1040 	1	55.70 	1	22837.0000 	0.0000;
    1432	121.2235 	33.1335 	7034.1670 	-813.2080 	1	166.50 	1	0.0000 	0.0000;
    1433	113.4765 	33.1335 	7034.1670 	-813.2080 	1	166.50 	1	0.0000 	0.0000;
    1439	92.8420 	26.6990 	5668.1530 	-655.2920 	1	134.17 	1	27504.2350 	0.0000;
    1441	84.1700 	26.6990 	5668.1530 	-655.2920 	1	134.17 	1	27504.2350 	0.0000;
    1442	88.2115 	26.6990 	5668.1530 	-655.2920 	1	134.17 	1	0.0000 	0.0000;
    1443	74.7535 	26.6990 	5668.1530 	-655.2920 	1	134.17 	1	27504.2350 	0.0000;
    1445	160.3530 	51.1620 	10861.6290 	-1255.7160 	1	85.70 	1	52705.5000 	0.0000;
    1454	137.1065 	40.3970 	12864.2115 	-991.4520 	1	203.00 	1	0.0000 	0.0000;
    1455	118.7315 	40.3970 	12864.2115 	-991.4520 	1	203.00 	1	0.0000 	0.0000;
    1457	28.3285 	9.3730 	2984.7630 	-230.0320 	1	47.10 	1	0.0000 	0.0000;
    1458	60.4270 	18.7460 	3979.6840 	-460.0640 	1	47.10 	1	19311.0000 	0.0000;
    1461	160.0550 	49.3520 	10477.2560 	-1211.2320 	1	62.00 	1	0.0000 	0.0000;
    1466	84.1435 	22.8355 	4847.8640 	-560.4280 	1	114.75 	1	0.0000 	0.0000;
    1474	105.2305 	36.7150 	7794.5300 	-901.1200 	1	184.50 	1	0.0000 	0.0000;
    1858	28.2350 	9.3730 	1989.8420 	-230.0320 	1	4.10 	1	12552.1500 	0.0000;
    1861	162.2015 	50.1555 	11278.5380 	-1565.3000 	1	291.60 	1	0.0000 	0.0000;
    1868	446.8485 	105.0365 	23619.7250 	-3278.0880 	1	610.67 	1	0.0000 	0.0000;
    1870	341.2490 	105.0365 	23619.7250 	-3278.0880 	1	610.67 	1	0.0000 	0.0000;
    1873	62.3620 	16.8560 	3790.4440 	-526.0640 	1	49.00 	1	0.0000 	0.0000;
    1875	159.1755 	42.7260 	9607.7480 	-1333.3760 	1	62.10 	1	0.0000 	0.0000;
    1877	170.1925 	44.3580 	9974.9400 	-1384.4160 	1	85.97 	1	0.0000 	0.0000;
    1880	36.5695 	10.1825 	2289.7210 	-317.7680 	1	59.20 	1	0.0000 	0.0000;
    1883	116.4760 	29.2400 	6575.2600 	-912.5600 	1	170.00 	1	0.0000 	0.0000;
    1884	125.0495 	29.2400 	6575.2600 	-912.5600 	1	170.00 	1	0.0000 	0.0000;
    1888	106.4425 	36.8150 	7815.6950 	-903.5400 	1	185.00 	1	37925.0000 	0.0000;
    1893	16.9300 	4.1280 	928.2720 	-193.2480 	1	24.00 	1	0.0000 	0.0000;
    1897	127.8830 	37.8900 	8043.8620 	-929.8960 	1	190.40 	1	0.0000 	0.0000;
    1903	211.7325 	48.8090 	10975.8370 	-1523.3240 	1	283.77 	1	0.0000 	0.0000;
    1904	164.7580 	48.8090 	10975.8370 	-1523.3240 	1	283.77 	1	0.0000 	0.0000;
    1905	184.6770 	48.8090 	10975.8370 	-1523.3240 	1	283.77 	1	0.0000 	0.0000;
    1908	55.2780 	17.1140 	3633.2420 	-420.0240 	1	86.00 	1	0.0000 	0.0000;
    1912	93.8145 	27.3125 	5798.3800 	-670.3400 	1	137.25 	1	0.0000 	0.0000;
    1913	82.8390 	27.3125 	5798.3800 	-670.3400 	1	137.25 	1	28136.2500 	0.0000;
    1914	3.1040 	0.9350 	198.5360 	-22.9680 	1	4.70 	1	1252.5500 	0.0000;
    1917	13.8670 	0.0000 	0.0000 	0.0000 	1	10.00 	1	6662.5000 	0.0000;
    1919	19.8120 	5.9700 	1901.1150 	-146.5200 	1	30.00 	1	7995.0000 	0.0000;
    1921	31.1145 	7.1895 	1616.7570 	-336.6000 	1	41.80 	1	8569.0000 	0.0000;
    1923	14.8550 	3.7920 	721.4360 	-48.7520 	1	4.07 	1	0.0000 	0.0000;
    1925	42.3520 	10.5265 	2367.0770 	-328.5040 	1	61.20 	1	0.0000 	0.0000;
    1927	103.3225 	28.9155 	6138.5970 	-709.6320 	1	48.43 	1	0.0000 	0.0000;
    1929	49.7070 	14.9250 	3168.5250 	-366.3000 	1	75.00 	1	0.0000 	0.0000;
    1931	48.7100 	16.2480 	3449.4800 	-398.8160 	1	40.83 	1	16738.2500 	0.0000;
    1933	28.4560 	8.9020 	1889.8270 	-327.6900 	1	44.73 	1	11921.3445 	0.0000;
    1934	24.6650 	8.9020 	1889.8270 	-218.4600 	1	44.73 	1	0.0000 	0.0000;
    1936	78.3560 	24.3580 	5171.0660 	-597.7840 	1	61.20 	1	25092.0000 	0.0000;
    1939	94.5510 	29.2530 	6210.3090 	-717.9480 	1	49.00 	1	0.0000 	0.0000;
    1942	180.7080 	51.1700 	11506.7050 	-1596.9800 	1	297.50 	1	0.0000 	0.0000;
    1946	111.3780 	36.8150 	7815.6950 	-903.5400 	1	185.00 	1	0.0000 	0.0000;
    1950	148.8165 	39.5810 	8402.9200 	-971.4320 	1	198.90 	1	0.0000 	0.0000;
    1952	95.9425 	23.3235 	5244.6870 	-727.8480 	1	45.20 	1	0.0000 	0.0000;
    1956	111.7735 	39.6740 	8422.6740 	-973.7200 	1	199.37 	1	40870.2350 	0.0000;
    1957	139.0445 	39.6740 	8422.6740 	-973.7200 	1	199.37 	1	0.0000 	0.0000;
    1958	110.6735 	39.6740 	8422.6740 	-973.7200 	1	199.37 	1	40870.2350 	0.0000;
    1962	116.2450 	41.1065 	8726.7860 	-1008.8760 	1	206.57 	1	0.0000 	0.0000;
    1963	145.3030 	41.1065 	8726.7860 	-1008.8760 	1	206.57 	1	0.0000 	0.0000;
    1964	146.3115 	41.1065 	8726.7860 	-1008.8760 	1	206.57 	1	0.0000 	0.0000;
    1968	71.8530 	24.5765 	5217.5460 	-603.1960 	1	123.50 	1	25317.5000 	0.0000;
    1976	324.6670 	112.1760 	23814.6090 	-2753.1240 	1	563.70 	1	0.0000 	0.0000;
    1979	86.1155 	22.8850 	4858.4050 	-561.6600 	1	115.00 	1	0.0000 	0.0000;
    1981	84.1415 	22.8850 	4858.4050 	-561.6600 	1	115.00 	1	0.0000 	0.0000;
    1983	89.1885 	29.0730 	6172.2120 	-713.5920 	1	73.05 	1	0.0000 	0.0000;
    1993	280.2140 	78.8640 	16742.5110 	-1935.5160 	1	396.30 	1	0.0000 	0.0000;
    1996	287.4955 	78.8640 	16742.5110 	-1935.5160 	1	396.30 	1	0.0000 	0.0000;
];

%% generator cost data
%	2	startup	shutdown	n	c(n-1)	...	c0
mpc.gencost = [
    2	0	0	3	0.016 	21.370 	-2.678; 
    2	0	0	3	0.012 	21.100 	-2.186; 
    2	0	0	3	0.017 	22.010 	-2.770; 
    2	0	0	3	0.012 	19.750 	-2.049; 
    2	0	0	3	0.015 	24.090 	-2.724; 
    2	0	0	3	0.019 	19.760 	-2.386; 
    2	0	0	3	0.000 	17.000 	-1.619; 
    2	0	0	3	0.001 	9.129 	0.000; 
    2	0	0	3	0.002 	8.167 	0.000; 
    2	0	0	3	0.020 	17.370 	-2.014; 
    2	0	0	3	0.014 	21.620 	-2.032; 
    2	0	0	3	0.016 	19.400 	-2.187; 
    2	0	0	3	0.019 	19.250 	-2.470; 
    2	0	0	3	0.000 	30.000 	0.000; 
    2	0	0	3	0.000 	30.000 	0.000; 
    2	0	0	3	0.000 	30.000 	0.000; 
    2	0	0	3	0.014 	16.010 	-1.180; 
    2	0	0	3	0.011 	18.900 	-1.149; 
    2	0	0	3	0.014 	17.440 	-1.276; 
    2	0	0	3	0.014 	15.920 	-1.169; 
    2	0	0	3	0.002 	8.322 	0.000; 
    2	0	0	3	0.002 	8.325 	0.000; 
    2	0	0	3	0.000 	17.950 	0.000; 
    2	0	0	3	0.015 	14.870 	0.000; 
    2	0	0	3	0.020 	17.960 	-1.156; 
    2	0	0	3	0.017 	16.480 	0.000; 
    2	0	0	3	0.014 	14.240 	0.000; 
    2	0	0	3	0.020 	25.400 	-7.217;
    2	0	0	3	0.021 	22.280 	-5.772; 
    2	0	0	3	0.012 	29.890 	-5.213; 
    2	0	0	3	0.027 	23.340 	-6.146; 
    2	0	0	3	0.000 	30.000 	0.000; 
    2	0	0	3	0.000 	30.000 	0.000; 
    2	0	0	3	0.000 	30.000 	0.000; 
    2	0	0	3	0.000 	30.000 	0.000; 
    2	0	0	3	0.000 	30.000 	0.000; 
    2	0	0	3	0.000 	30.000 	0.000; 
    2	0	0	3	0.019 	19.460 	-1.724; 
    2	0	0	3	0.020 	21.280 	-2.006; 
    2	0	0	3	0.000 	15.850 	0.000; 
    2	0	0	3	0.013 	21.190 	-2.482; 
    2	0	0	3	0.012 	20.530 	-2.495; 
    2	0	0	3	0.019 	17.330 	-2.237; 
    2	0	0	3	0.023 	27.190 	-1.626; 
    2	0	0	3	0.026 	28.970 	-1.581; 
    2	0	0	3	0.000 	27.490 	-54.620; 
    2	0	0	3	0.000 	30.000 	0.000; 
    2	0	0	3	0.034 	29.900 	-3.238; 
    2	0	0	3	0.030 	32.670 	-3.029; 
    2	0	0	3	0.028 	29.570 	-3.073; 
    2	0	0	3	0.028 	27.390 	-2.660; 
    2	0	0	3	0.025 	34.170 	-3.145; 
    2	0	0	3	0.030 	27.690 	-2.616; 
    2	0	0	3	0.031 	27.070 	-1.764; 
    2	0	0	3	0.035 	31.910 	-2.326; 
    2	0	0	3	0.027 	30.990 	-4.106; 
    2	0	0	3	0.032 	30.790 	-4.019; 
    2	0	0	3	0.030 	30.230 	-4.252; 
    2	0	0	3	0.027 	29.530 	-4.077; 
    2	0	0	3	0.019 	30.360 	-2.086; 
    2	0	0	3	0.020 	29.900 	-2.177; 
    2	0	0	3	0.027 	25.400 	-2.084; 
    2	0	0	3	0.027 	30.430 	-2.712; 
    2	0	0	3	0.029 	26.400 	-2.688; 
    2	0	0	3	0.024 	29.870 	-3.309; 
    2	0	0	3	0.018 	33.130 	-2.925; 
    2	0	0	3	0.030 	28.730 	-3.319; 
    2	0	0	3	0.029 	34.360 	-3.224; 
    2	0	0	3	0.025 	36.570 	-4.649; 
    2	0	0	3	0.022 	39.920 	-4.583; 
    2	0	0	3	0.022 	31.190 	-3.989; 
    2	0	0	3	0.021 	33.810 	-4.054; 
    2	0	0	3	0.000 	27.900 	0.000; 
    2	0	0	3	0.036 	30.220 	-3.324; 
    2	0	0	3	0.028 	27.650 	-2.337; 
    2	0	0	3	0.021 	30.250 	-2.185; 
    2	0	0	3	0.000 	30.000 	0.000; 
    2	0	0	3	0.034 	27.540 	-2.959; 
    2	0	0	3	0.022 	30.390 	-2.577; 
    2	0	0	3	0.026 	29.290 	-2.630; 
    2	0	0	3	0.000 	30.000 	0.000; 
    2	0	0	3	0.000 	30.000 	0.000; 
    2	0	0	3	0.000 	30.000 	0.000; 
    2	0	0	3	0.000 	28.390 	-33.640; 
    2	0	0	3	0.000 	0.000 	0.000; 
    2	0	0	3	0.021 	26.750 	-1.370; 
    2	0	0	3	0.017 	30.820 	-1.447; 
    2	0	0	3	0.000 	25.330 	-12.060; 
    2	0	0	3	0.000 	0.000 	0.000; 
    2	0	0	3	0.027 	39.130 	-6.398; 
    2	0	0	3	0.029 	34.570 	-6.352; 
    2	0	0	3	0.028 	37.180 	-6.334; 
    2	0	0	3	0.032 	29.680 	-5.362; 
    2	0	0	3	0.026 	26.950 	-3.765; 
    2	0	0	3	0.033 	35.340 	-5.969; 
    2	0	0	3	0.024 	38.060 	-5.211; 
    2	0	0	3	0.030 	29.840 	-5.257; 
    2	0	0	3	0.030 	29.900 	-4.161; 
    2	0	0	3	0.018 	33.220 	-2.811; 
    2	0	0	3	0.019 	32.790 	-2.878; 
    2	0	0	3	0.031 	29.760 	-3.390; 
    2	0	0	3	0.030 	30.920 	-3.063; 
    2	0	0	3	0.027 	27.250 	-3.079; 
    2	0	0	3	0.035 	26.840 	-2.686; 
    2	0	0	3	0.036 	28.870 	-2.854; 
    2	0	0	3	0.000 	30.000 	0.000; 
    2	0	0	3	0.000 	30.000 	0.000; 
    2	0	0	3	0.000 	30.000 	0.000; 
    2	0	0	3	0.000 	28.520 	-18.400; 
    2	0	0	3	0.000 	30.130 	0.000; 
    2	0	0	3	0.048 	35.250 	-2.658; 
    2	0	0	3	0.042 	34.620 	-2.848; 
    2	0	0	3	0.030 	32.190 	-6.679; 
    2	0	0	3	0.000 	26.110 	0.000; 
    2	0	0	3	0.000 	26.750 	-11.630; 
    2	0	0	3	0.017 	30.130 	-1.799; 
    2	0	0	3	0.027 	30.740 	-2.511; 
    2	0	0	3	0.018 	26.620 	-1.373; 
    2	0	0	3	0.021 	24.820 	-1.303; 
    2	0	0	3	0.027 	27.570 	-1.831; 
    2	0	0	3	0.027 	26.200 	-1.183; 
    2	0	0	3	0.000 	26.690 	-33.490; 
    2	0	0	3	0.027 	28.540 	-2.911; 
    2	0	0	3	0.035 	28.170 	-2.694; 
    2	0	0	3	0.000 	28.390 	-12.290; 
    2	0	0	3	0.000 	26.530 	0.000; 
    2	0	0	3	0.000 	27.970 	-25.120; 
    2	0	0	3	0.018 	28.180 	-1.267; 
    2	0	0	3	0.032 	27.940 	-2.118; 
    2	0	0	3	0.000 	24.220 	0.000; 
    2	0	0	3	0.069 	36.430 	-6.560; 
    2	0	0	3	0.053 	74.480 	-20.090; 
    2	0	0	3	0.097 	44.480 	-19.550; 
    2	0	0	3	0.000 	35.260 	-23.850; 
    2	0	0	3	0.000 	30.000 	0.000; 
    2	0	0	3	0.000 	30.000 	0.000; 
    2	0	0	3	0.000 	37.740 	-32.880; 
    2	0	0	3	0.052 	44.600 	-4.878; 
    2	0	0	3	0.027 	39.750 	-2.886; 
    2	0	0	3	0.030 	26.180 	-1.993; 
    2	0	0	3	0.000 	30.000 	0.000; 
    2	0	0	3	0.027 	31.010 	-2.787; 
    2	0	0	3	0.041 	47.290 	-7.598; 
    2	0	0	3	0.073 	40.500 	-7.724; 
    2	0	0	3	0.057 	41.110 	-8.072; 
    2	0	0	3	0.000 	31.910 	-47.910; 
    2	0	0	3	0.027 	29.730 	-2.025; 
    2	0	0	3	0.027 	27.770 	-1.526; 
    2	0	0	3	0.000 	24.410 	0.000; 
    2	0	0	3	0.000 	0.000 	0.000; 
    2	0	0	3	0.000 	28.830 	-3.836; 
    2	0	0	3	0.000 	30.000 	0.000; 
    2	0	0	3	0.000 	30.000 	0.000; 
    2	0	0	3	0.000 	30.000 	0.000; 
    2	0	0	3	0.000 	28.460 	0.000; 
    2	0	0	3	0.000 	31.790 	-42.120; 
    2	0	0	3	0.000 	28.560 	-9.464; 
    2	0	0	3	0.000 	26.110 	-8.847; 
    2	0	0	3	0.000 	29.640 	-9.633; 
    2	0	0	3	0.000 	26.720 	-14.910; 
    2	0	0	3	0.000 	27.140 	-14.200; 
    2	0	0	3	0.000 	30.000 	0.000; 
    2	0	0	3	0.038 	32.160 	-2.940; 
    2	0	0	3	0.026 	37.790 	-3.317; 
    2	0	0	3	0.000 	30.000 	0.000; 
    2	0	0	3	0.038 	28.430 	-2.564; 
    2	0	0	3	0.025 	31.400 	-2.842; 
    2	0	0	3	0.034 	26.610 	-2.174; 
    2	0	0	3	0.032 	29.200 	-2.244; 
    2	0	0	3	0.028 	32.580 	-3.395; 
    2	0	0	3	0.024 	31.180 	-2.922; 
    2	0	0	3	0.022 	27.330 	-1.046; 
    2	0	0	3	0.032 	32.980 	-6.626; 
    2	0	0	3	0.017 	31.760 	-1.292; 
    2	0	0	3	0.019 	31.000 	-1.358; 
    2	0	0	3	0.000 	30.380 	-40.860; 
    2	0	0	3	0.024 	39.200 	-5.566; 
    2	0	0	3	0.023 	38.840 	-5.717; 
];

%% branch data
%	fbus	tbus	r	x	b	rateA	rateB	rateC	ratio	angle	status	angmin	angmax
mpc.branch = [
    1	3	0.00023 	0.00102 	0.00000 	499995.00 	499995.00 	499995.00 	0	0	1	-180	180;
    1	28	0.00414 	0.02707 	0.00746 	1098.10 	1098.10 	1098.10 	0	0	1	-180	180;
    1	174	0.00265 	0.01050 	0.00833 	48350.00 	48350.00 	48350.00 	0	0	1	-180	180;
    1	247	0.00713 	0.03576 	0.00985 	1328.40 	1328.40 	1328.40 	0	0	1	-180	180;
    1	248	0.00370 	0.02114 	0.01010 	1219.15 	1219.15 	1219.15 	0	0	1	-180	180;
    2	1	0.00095 	0.03074 	0.00000 	2091.20 	2091.20 	2091.20 	1	0	1	-180	180;
    2	23	0.00523 	0.01662 	0.00098 	790.40 	790.40 	790.40 	0	0	1	-180	180;
    4	128	0.01329 	0.02682 	0.00578 	322.20 	322.20 	322.20 	0	0	1	-180	180;
    4	164	0.02193 	0.05912 	0.01219 	260.00 	260.00 	260.00 	0	0	1	-180	180;
    5	4	0.01088 	0.03093 	0.00105 	404.75 	404.75 	404.75 	0	0	1	-180	180;
    5	10	0.00934 	0.02555 	0.00609 	542.95 	542.95 	542.95 	0	0	1	-180	180;
    6	13	0.00673 	0.01486 	0.00076 	651.90 	651.90 	651.90 	0	0	1	-180	180;
    6	43	0.00592 	0.01651 	0.00153 	1224.15 	1224.15 	1224.15 	0	0	1	-180	180;
    7	86	0.00145 	0.00488 	0.01147 	3845.10 	3845.10 	3845.10 	0	0	1	-180	180;
    8	214	0.01774 	0.04798 	0.00112 	525.80 	525.80 	525.80 	0	0	1	-180	180;
    9	7	0.00214 	0.01503 	0.01213 	1595.85 	1595.85 	1595.85 	0	0	1	-180	180;
    9	11	0.00021 	0.00119 	0.00000 	499995.00 	499995.00 	499995.00 	0	0	1	-180	180;
    10	6	0.01703 	0.04216 	0.00119 	431.45 	431.45 	431.45 	0	0	1	-180	180;
    10	9	0.00510 	0.16344 	0.00000 	406.80 	406.80 	406.80 	1.05	0	1	-180	180;
    12	14	0.00024 	0.00116 	0.00000 	499995.00 	499995.00 	499995.00 	0	0	1	-180	180;
    13	8	0.01655 	0.04267 	0.00367 	665.55 	665.55 	665.55 	0	0	1	-180	180;
    13	12	0.00649 	0.19971 	0.00000 	398.55 	398.55 	398.55 	1	0	1	-180	180;
    13	17	0.03205 	0.07549 	0.00236 	8253.00 	8253.00 	8253.00 	0	0	1	-180	180;
    13	187	0.00692 	0.01711 	0.00801 	7940.00 	7940.00 	7940.00 	0	0	1	-180	180;
    14	9	0.00365 	0.02181 	0.00603 	860.20 	860.20 	860.20 	0	0	1	-180	180;
    15	151	0.00172 	0.01153 	0.00860 	1431.00 	1431.00 	1431.00 	0	0	1	-180	180;
    15	211	0.00192 	0.01051 	0.00425 	1401.60 	1401.60 	1401.60 	0	0	1	-180	180;
    15	232	0.00230 	0.01490 	0.01063 	3008.35 	3008.35 	3008.35 	0	0	1	-180	180;
    16	21	0.01156 	0.03573 	0.00234 	527.25 	527.25 	527.25 	0	0	1	-180	180;
    16	35	0.00813 	0.01956 	0.00219 	462.10 	462.10 	462.10 	0	0	1	-180	180;
    16	37	0.01297 	0.04012 	0.00064 	368.15 	368.15 	368.15 	0	0	1	-180	180;
    17	43	0.01675 	0.04241 	0.00169 	497.00 	497.00 	497.00 	0	0	1	-180	180;
    18	19	0.00025 	0.00108 	0.00000 	499995.00 	499995.00 	499995.00 	0	0	1	-180	180;
    18	187	0.00906 	0.02641 	0.00107 	778.15 	778.15 	778.15 	0	0	1	-180	180;
    20	22	0.00022 	0.00118 	0.00000 	499995.00 	499995.00 	499995.00 	0	0	1	-180	180;
    21	20	0.00103 	0.03278 	0.00000 	2010.20 	2010.20 	2010.20 	1.05	0	1	-180	180;
    21	38	0.01140 	0.02615 	0.00100 	680.00 	680.00 	680.00 	0	0	1	-180	180;
    22	34	0.00460 	0.02375 	0.03176 	1078.75 	1078.75 	1078.75 	0	0	1	-180	180;
    22	86	0.00244 	0.01443 	0.00822 	1339.90 	1339.90 	1339.90 	0	0	1	-180	180;
    22	215	0.00106 	0.00495 	0.00448 	3870.60 	3870.60 	3870.60 	0	0	1	-180	180;
    22	548	0.00207 	0.01098 	0.00589 	3879.15 	3879.15 	3879.15 	0	0	1	-180	180;
    23	177	0.01677 	0.04546 	0.00130 	375.35 	375.35 	375.35 	0	0	1	-180	180;
    24	16	0.01185 	0.03186 	0.00209 	496.65 	496.65 	496.65 	0	0	1	-180	180;
    24	25	0.00026 	0.00110 	0.00000 	499995.00 	499995.00 	499995.00 	0	0	1	-180	180;
    24	41	0.00793 	0.02082 	0.00057 	670.70 	670.70 	670.70 	0	0	1	-180	180;
    26	28	0.00029 	0.00112 	0.00000 	499995.00 	499995.00 	499995.00 	0	0	1	-180	180;
    27	23	0.01277 	0.02996 	0.00160 	296.05 	296.05 	296.05 	0	0	1	-180	180;
    27	26	0.00584 	0.17059 	0.00000 	439.15 	439.15 	439.15 	1	0	1	-180	180;
    27	177	0.01481 	0.03842 	0.00195 	382.05 	382.05 	382.05 	0	0	1	-180	180;
    27	219	0.01467 	0.03565 	0.00088 	276.80 	276.80 	276.80 	0	0	1	-180	180;
    28	165	0.00357 	0.02324 	0.00589 	1750.00 	1750.00 	1750.00 	0	0	1	-180	180;
    28	174	0.00146 	0.01013 	0.00458 	1206.55 	1206.55 	1206.55 	0	0	1	-180	180;
    29	252	0.01908 	0.05666 	0.00108 	303.15 	303.15 	303.15 	0	0	1	-180	180;
    29	267	0.02443 	0.06415 	0.00259 	409.30 	409.30 	409.30 	0	0	1	-180	180;
    29	557	0.00116 	0.00318 	0.00016 	1026.95 	1026.95 	1026.95 	0	0	1	-180	180;
    30	31	0.00178 	0.01170 	0.00650 	955.00 	955.00 	955.00 	0	0	1	-180	180;
    31	33	0.00027 	0.00120 	0.00000 	499995.00 	499995.00 	499995.00 	0	0	1	-180	180;
    31	42	0.00623 	0.02800 	0.00722 	1146.90 	1146.90 	1146.90 	0	0	1	-180	180;
    32	17	0.01320 	0.03253 	0.00104 	684.20 	684.20 	684.20 	0	0	1	-180	180;
    32	31	0.00112 	0.03242 	0.00000 	1469.55 	1469.55 	1469.55 	1	0	1	-180	180;
    32	283	0.00711 	0.02162 	0.00110 	13532.00 	13532.00 	13532.00 	0	0	1	-180	180;
    34	31	0.00189 	0.01070 	0.00393 	2322.00 	2322.00 	2322.00 	0	0	1	-180	180;
    34	39	0.00208 	0.01329 	0.00450 	2411.90 	2411.90 	2411.90 	0	0	1	-180	180;
    34	564	0.00582 	0.03164 	0.00757 	1077.10 	1077.10 	1077.10 	0	0	1	-180	180;
    35	238	0.03004 	0.09045 	0.00849 	314.00 	314.00 	314.00 	0	0	1	-180	180;
    35	557	0.01043 	0.02354 	0.00094 	1141.35 	1141.35 	1141.35 	0	0	1	-180	180;
    36	35	0.01326 	0.02373 	0.00071 	688.00 	688.00 	688.00 	0	0	1	-180	180;
    36	245	0.02936 	0.06739 	0.00116 	248.15 	248.15 	248.15 	0	0	1	-180	180;
    36	249	0.00267 	0.00872 	0.00031 	1131.15 	1131.15 	1131.15 	0	0	1	-180	180;
    36	557	0.01642 	0.04207 	0.00240 	506.25 	506.25 	506.25 	0	0	1	-180	180;
    37	21	0.01613 	0.02995 	0.00131 	365.30 	365.30 	365.30 	0	0	1	-180	180;
    37	35	0.00423 	0.00894 	0.00091 	1169.25 	1169.25 	1169.25 	0	0	1	-180	180;
    37	38	0.00935 	0.03045 	0.00098 	682.00 	682.00 	682.00 	0	0	1	-180	180;
    37	87	0.02212 	0.05640 	0.00140 	430.60 	430.60 	430.60 	0	0	1	-180	180;
    38	173	0.01777 	0.05701 	0.00116 	464.80 	464.80 	464.80 	0	0	1	-180	180;
    40	39	0.00081 	0.02680 	0.00000 	1986.40 	1986.40 	1986.40 	1.025	0	1	-180	180;
    40	263	0.02715 	0.07140 	0.00447 	275.75 	275.75 	275.75 	0	0	1	-180	180;
    40	276	0.01134 	0.02432 	0.00042 	721.00 	721.00 	721.00 	0	0	1	-180	180;
    42	14	0.00495 	0.02498 	0.01069 	993.60 	993.60 	993.60 	0	0	1	-180	180;
    42	44	0.00021 	0.00109 	0.00000 	499995.00 	499995.00 	499995.00 	0	0	1	-180	180;
    43	42	0.00096 	0.02906 	0.00000 	2081.40 	2081.40 	2081.40 	1	0	1	-180	180;
    43	46	0.02416 	0.04486 	0.00129 	449.75 	449.75 	449.75 	0	0	1	-180	180;
    45	46	0.02518 	0.06035 	0.00163 	535.50 	535.50 	535.50 	0	0	1	-180	180;
    45	275	0.01638 	0.03591 	0.00184 	333.20 	333.20 	333.20 	0	0	1	-180	180;
    46	209	0.02384 	0.06191 	0.00253 	384.10 	384.10 	384.10 	0	0	1	-180	180;
    47	50	0.00024 	0.00109 	0.00000 	499995.00 	499995.00 	499995.00 	0	0	1	-180	180;
    47	524	0.00054 	0.00584 	0.11891 	106202.00 	106202.00 	106202.00 	0	0	1	-180	180;
    48	47	0.00074 	0.03427 	0.00000 	36659.00 	36659.00 	36659.00 	1.05	0	1	-180	180;
    48	73	0.01474 	0.07499 	0.01602 	1134.70 	1134.70 	1134.70 	0	0	1	-180	180;
    48	534	0.00072 	0.00458 	0.01745 	4047.00 	4047.00 	4047.00 	0	0	1	-180	180;
    49	48	0.00658 	0.20340 	0.00000 	375.40 	375.40 	375.40 	1.025	0	1	-180	180;
    49	60	0.02183 	0.05163 	0.00357 	357.55 	357.55 	357.55 	0	0	1	-180	180;
    51	61	0.03941 	0.11571 	0.02024 	550.00 	550.00 	550.00 	0	0	1	-180	180;
    51	200	0.03121 	0.07132 	0.00238 	561.75 	561.75 	561.75 	0	0	1	-180	180;
    52	54	0.00020 	0.00102 	0.00000 	499995.00 	499995.00 	499995.00 	0	0	1	-180	180;
    52	159	0.00027 	0.00355 	0.08087 	5802.00 	5802.00 	5802.00 	0	0	1	-180	180;
    53	52	0.00061 	0.03500 	0.00000 	2395.65 	2395.65 	2395.65 	1.05	0	1	-180	180;
    53	158	0.00439 	0.02472 	0.00914 	1237.50 	1237.50 	1237.50 	0	0	1	-180	180;
    53	193	0.00140 	0.00910 	0.00888 	3886.95 	3886.95 	3886.95 	0	0	1	-180	180;
    53	521	0.00320 	0.02547 	0.00450 	2953.40 	2953.40 	2953.40 	0	0	1	-180	180;
    55	48	0.00543 	0.03288 	0.01335 	1004.85 	1004.85 	1004.85 	0	0	1	-180	180;
    55	53	0.00167 	0.00818 	0.00499 	4308.15 	4308.15 	4308.15 	0	0	1	-180	180;
    55	57	0.00030 	0.00101 	0.00000 	499995.00 	499995.00 	499995.00 	0	0	1	-180	180;
    55	521	0.00607 	0.03028 	0.01322 	1134.55 	1134.55 	1134.55 	0	0	1	-180	180;
    55	534	0.00138 	0.00697 	0.00664 	4171.05 	4171.05 	4171.05 	0	0	1	-180	180;
    55	538	0.00623 	0.01531 	0.00504 	2411.10 	2411.10 	2411.10 	0	0	1	-180	180;
    56	55	0.00239 	0.07048 	0.00000 	1387.65 	1387.65 	1387.65 	1	0	1	-180	180;
    58	56	0.00776 	0.01648 	0.00127 	1218.60 	1218.60 	1218.60 	0	0	1	-180	180;
    59	528	0.01094 	0.02784 	0.00086 	768.30 	768.30 	768.30 	0	0	1	-180	180;
    60	59	0.01303 	0.02877 	0.00219 	659.90 	659.90 	659.90 	0	0	1	-180	180;
    60	66	0.07167 	0.18218 	0.00518 	351.05 	351.05 	351.05 	0	0	1	-180	180;
    63	65	0.00024 	0.00104 	0.00000 	499995.00 	499995.00 	499995.00 	0	0	1	-180	180;
    63	73	0.00899 	0.04413 	0.02116 	1023.25 	1023.25 	1023.25 	0	0	1	-180	180;
    64	61	0.02473 	0.05046 	0.00389 	348.75 	348.75 	348.75 	0	0	1	-180	180;
    64	62	0.01859 	0.05168 	0.00336 	249.95 	249.95 	249.95 	0	0	1	-180	180;
    64	63	0.00345 	0.08267 	0.00000 	337.45 	337.45 	337.45 	1.05	0	1	-180	180;
    66	70	0.07759 	0.18685 	0.00375 	279.20 	279.20 	279.20 	0	0	1	-180	180;
    67	69	0.00025 	0.00109 	0.00000 	499995.00 	499995.00 	499995.00 	0	0	1	-180	180;
    67	71	0.01000 	0.07000 	0.00000 	1100.00 	1100.00 	1100.00 	0	0	1	-180	180;
    67	84	0.01744 	0.09737 	0.06230 	968.80 	968.80 	968.80 	0	0	1	-180	180;
    68	67	0.00474 	0.13556 	0.00000 	399.35 	399.35 	399.35 	1.05	0	1	-180	180;
    68	114	0.05763 	0.09761 	0.00478 	254.00 	254.00 	254.00 	0	0	1	-180	180;
    68	540	0.14002 	0.34522 	0.01761 	247.30 	247.30 	247.30 	0	0	1	-180	180;
    70	68	0.14795 	0.23830 	0.00512 	661.70 	661.70 	661.70 	0	0	1	-180	180;
    71	73	0.00026 	0.00116 	0.00000 	499995.00 	499995.00 	499995.00 	0	0	1	-180	180;
    72	62	0.06155 	0.13676 	0.00336 	344.05 	344.05 	344.05 	0	0	1	-180	180;
    72	70	0.04322 	0.10495 	0.00449 	325.60 	325.60 	325.60 	0	0	1	-180	180;
    72	71	0.00066 	0.02090 	0.00000 	1272.75 	1272.75 	1272.75 	1.025	0	1	-180	180;
    74	75	0.01578 	0.03624 	0.00373 	222.80 	222.80 	222.80 	0	0	1	-180	180;
    75	77	0.01604 	0.05173 	0.00218 	236.95 	236.95 	236.95 	0	0	1	-180	180;
    76	78	0.00024 	0.00107 	0.00000 	499995.00 	499995.00 	499995.00 	0	0	1	-180	180;
    77	76	0.00372 	0.10662 	0.00000 	262.75 	262.75 	262.75 	1	0	1	-180	180;
    77	80	0.10639 	0.28830 	0.03219 	215.85 	215.85 	215.85 	0	0	1	-180	180;
    79	81	0.00029 	0.00110 	0.00000 	499995.00 	499995.00 	499995.00 	0	0	1	-180	180;
    79	583	0.01077 	0.05779 	0.04675 	1016.05 	1016.05 	1016.05 	0	0	1	-180	180;
    80	79	0.00427 	0.12991 	0.00000 	280.85 	280.85 	280.85 	1.025	0	1	-180	180;
    80	582	0.13656 	0.41850 	0.00592 	264.55 	264.55 	264.55 	0	0	1	-180	180;
    82	80	0.06706 	0.17930 	0.00424 	255.10 	255.10 	255.10 	0	0	1	-180	180;
    83	85	0.00022 	0.00116 	0.00000 	499995.00 	499995.00 	499995.00 	0	0	1	-180	180;
    84	79	0.01742 	0.10436 	0.03646 	893.20 	893.20 	893.20 	0	0	1	-180	180;
    84	83	0.00008 	0.00564 	0.00000 	1249.05 	1249.05 	1249.05 	0	0	1	-180	180;
    86	30	0.00215 	0.01167 	0.02010 	1118.45 	1118.45 	1118.45 	0	0	1	-180	180;
    86	88	0.00027 	0.00108 	0.00000 	499995.00 	499995.00 	499995.00 	0	0	1	-180	180;
    86	548	0.00328 	0.01338 	0.00496 	2617.10 	2617.10 	2617.10 	0	0	1	-180	180;
    87	16	0.00301 	0.00670 	0.00027 	1129.95 	1129.95 	1129.95 	0	0	1	-180	180;
    87	86	0.00134 	0.04068 	0.00000 	1440.15 	1440.15 	1440.15 	1.05	0	1	-180	180;
    87	245	0.02155 	0.04523 	0.00580 	287.25 	287.25 	287.25 	0	0	1	-180	180;
    89	91	0.00026 	0.00113 	0.00000 	499995.00 	499995.00 	499995.00 	0	0	1	-180	180;
    89	106	0.00164 	0.00901 	0.00484 	5097.30 	5097.30 	5097.30 	0	0	1	-180	180;
    89	256	0.00322 	0.01941 	0.00714 	2002.70 	2002.70 	2002.70 	0	0	1	-180	180;
    89	382	0.00248 	0.01579 	0.02575 	1700.70 	1700.70 	1700.70 	0	0	1	-180	180;
    90	89	0.00091 	0.02941 	0.00000 	2078.20 	2078.20 	2078.20 	1	0	1	-180	180;
    90	101	0.01358 	0.04022 	0.00092 	308.60 	308.60 	308.60 	0	0	1	-180	180;
    90	241	0.00518 	0.01329 	0.00117 	666.10 	666.10 	666.10 	0	0	1	-180	180;
    90	255	0.00544 	0.01289 	0.00211 	1185.45 	1185.45 	1185.45 	0	0	1	-180	180;
    92	98	0.00878 	0.02307 	0.00110 	503.80 	503.80 	503.80 	0	0	1	-180	180;
    92	330	0.00679 	0.01705 	0.00477 	370.85 	370.85 	370.85 	0	0	1	-180	180;
    94	262	0.00476 	0.00978 	0.00058 	1192.50 	1192.50 	1192.50 	0	0	1	-180	180;
    95	107	0.02322 	0.05981 	0.00077 	418.85 	418.85 	418.85 	0	0	1	-180	180;
    95	323	0.02128 	0.05543 	0.00227 	345.10 	345.10 	345.10 	0	0	1	-180	180;
    96	105	0.00041 	0.00512 	0.13830 	6835.35 	6835.35 	6835.35 	0	0	1	-180	180;
    96	337	0.00115 	0.01346 	0.24721 	6102.85 	6102.85 	6102.85 	0	0	1	-180	180;
    97	96	0.00012 	0.00834 	0.00000 	8457.60 	8457.60 	8457.60 	1.025	0	1	-180	180;
    97	99	0.00024 	0.00107 	0.00000 	499995.00 	499995.00 	499995.00 	0	0	1	-180	180;
    98	97	0.00086 	0.02372 	0.00000 	2662.25 	2662.25 	2662.25 	1.025	0	1	-180	180;
    98	104	0.00510 	0.01357 	0.00088 	1273.95 	1273.95 	1273.95 	0	0	1	-180	180;
    99	89	0.00159 	0.00626 	0.00413 	4075.80 	4075.80 	4075.80 	0	0	1	-180	180;
    100	89	0.00094 	0.00556 	0.00152 	3317.40 	3317.40 	3317.40 	0	0	1	-180	180;
    100	102	0.00030 	0.00101 	0.00000 	499995.00 	499995.00 	499995.00 	0	0	1	-180	180;
    100	266	0.00207 	0.00897 	0.00757 	1168.70 	1168.70 	1168.70 	0	0	1	-180	180;
    100	272	0.00340 	0.01513 	0.01235 	1681.65 	1681.65 	1681.65 	0	0	1	-180	180;
    101	100	0.00609 	0.17308 	0.00000 	372.40 	372.40 	372.40 	1.025	0	1	-180	180;
    101	239	0.00368 	0.01014 	0.00059 	793.20 	793.20 	793.20 	0	0	1	-180	180;
    101	255	0.01987 	0.04464 	0.00807 	276.50 	276.50 	276.50 	0	0	1	-180	180;
    103	98	0.00606 	0.01404 	0.00097 	904.70 	904.70 	904.70 	0	0	1	-180	180;
    103	104	0.02114 	0.05160 	0.00135 	419.80 	419.80 	419.80 	0	0	1	-180	180;
    103	116	0.01611 	0.04605 	0.00164 	321.30 	321.30 	321.30 	0	0	1	-180	180;
    103	383	0.02195 	0.06210 	0.00211 	312.45 	312.45 	312.45 	0	0	1	-180	180;
    104	90	0.01393 	0.03644 	0.00135 	301.95 	301.95 	301.95 	0	0	1	-180	180;
    105	108	0.00022 	0.00105 	0.00000 	499995.00 	499995.00 	499995.00 	0	0	1	-180	180;
    105	257	0.00020 	0.00252 	0.09713 	15182.35 	15182.35 	15182.35 	0	0	1	-180	180;
    105	278	0.00090 	0.00982 	0.17844 	8307.40 	8307.40 	8307.40 	0	0	1	-180	180;
    105	312	0.00106 	0.01288 	0.40761 	8005.65 	8005.65 	8005.65 	0	0	1	-180	180;
    105	337	0.00100 	0.01114 	0.21283 	5954.70 	5954.70 	5954.70 	0	0	1	-180	180;
    106	105	0.00009 	0.00554 	0.00000 	13141.60 	13141.60 	13141.60 	1	0	1	-180	180;
    107	106	0.00191 	0.05849 	0.00000 	1396.35 	1396.35 	1396.35 	1	0	1	-180	180;
    107	323	0.00373 	0.01152 	0.00213 	891.90 	891.90 	891.90 	0	0	1	-180	180;
    109	271	0.03114 	0.07154 	0.00229 	361.20 	361.20 	361.20 	0	0	1	-180	180;
    110	100	0.00099 	0.00601 	0.00863 	1039.80 	1039.80 	1039.80 	0	0	1	-180	180;
    110	112	0.00022 	0.00112 	0.00000 	499995.00 	499995.00 	499995.00 	0	0	1	-180	180;
    110	258	0.00224 	0.01179 	0.00372 	2676.70 	2676.70 	2676.70 	0	0	1	-180	180;
    110	266	0.00306 	0.01725 	0.00396 	965.30 	965.30 	965.30 	0	0	1	-180	180;
    111	95	0.02336 	0.06025 	0.00164 	255.95 	255.95 	255.95 	0	0	1	-180	180;
    111	110	0.00745 	0.18127 	0.00000 	298.45 	298.45 	298.45 	1	0	1	-180	180;
    113	246	0.02084 	0.05270 	0.00140 	295.15 	295.15 	295.15 	0	0	1	-180	180;
    113	263	0.02372 	0.05856 	0.00287 	368.50 	368.50 	368.50 	0	0	1	-180	180;
    115	93	0.01035 	0.02454 	0.00242 	292.60 	292.60 	292.60 	0	0	1	-180	180;
    115	323	0.01076 	0.02862 	0.00103 	776.95 	776.95 	776.95 	0	0	1	-180	180;
    116	101	0.01036 	0.02540 	0.00366 	284.60 	284.60 	284.60 	0	0	1	-180	180;
    117	335	0.01402 	0.03921 	0.00220 	286.35 	286.35 	286.35 	0	0	1	-180	180;
...
];
